src/test/resources/ieeefiles/nanjing/case15.txt
 08/19/93 UW ARCHIVE           10.0   2018 W REAL 15 Bus Test Case
BUS DATA FOLLOWS                            15 ITEMS
   1 Node1        1   1  3 1.0500  0.000   0.0000  0.00000  0.00000  0.0000  10.00  1.0000 0.00000 0.00000  0.0000  0.0000 0
   2 Node2        1   1  0 1.0000  0.000   0.0947  0.00560  0.00000  0.0000  10.00  1.0000 0.00000 0.00000  0.0000  0.0000 0
   3 Node3        1   1  0 1.0000  0.000   0.3654  0.00000  0.00000  0.0000  10.00  1.0000 0.00000 0.00000  0.0000  0.0000 0
   4 Node4        1   1  0 1.0000  0.000   0.5901  1.06790  0.00000  0.0000  10.00  1.0000 0.00000 0.00000  0.0000  0.0000 0
   5 Node5        1   1  0 1.0000  0.000   0.2615  0.00000  0.00000  0.0000  10.00  1.0000 0.00000 0.00000  0.0000  0.0000 0
   6 Node6        1   1  0 1.0000  0.000   0.1312  0.00000  0.00000  0.0000  10.00  1.0000 0.00000 0.00000  0.0000  0.0000 0
   7 Node7        1   1  0 1.0000  0.000   0.1282  0.00000  0.00000  0.0000  10.00  1.0000 0.00000 0.00000  0.0000  0.0000 0
   8 Node8        1   1  0 1.0000  0.000   0.1918  0.00000  0.00000  0.0200  10.00  1.0000 0.00000 0.00000  0.0000  0.0000 0
   9 Node9        1   1  0 1.0000  0.000   0.0022  0.00380  0.00000  0.0000  10.00  1.0000 0.00000 0.00000  0.0000  0.0000 0
  10 Node10       1   1  0 1.0000  0.000   0.0336  0.00000  0.00000  0.0000  10.00  1.0000 0.00000 0.00000  0.0000  0.0000 0
  11 Node11       1   1  0 1.0000  0.000   0.0045  0.00350  0.00000  0.0000  10.00  1.0000 0.00000 0.00000  0.0000  0.0000 0
  12 Node12       1   1  0 1.0000  0.000   0.0053  0.00310  0.00000  0.0000  10.00  1.0000 0.00000 0.00000  0.0000  0.0000 0
  13 Node13       1   1  0 1.0000  0.000   0.0109  0.00000  0.00000  0.0050  10.00  1.0000 0.00000 0.00000  0.0000  0.0000 0
  14 Node14       1   1  0 1.0000  0.000   0.1004  0.00000  0.00000  0.0000  10.00  1.0000 0.00000 0.00000  0.0000  0.0000 0
  15 Node15       1   1  0 1.0000  0.000   0.1283  0.00000  0.00000  0.0043  10.00  1.0000 0.00000 0.00000  0.0000  0.0000 0
-999
BRANCH DATA FOLLOWS                         14 ITEMS
   1    2 1 1   1 0  0.006755  0.010595   0.0      0     0     0    0    0  0.0000  0.00   0.0000 0.00000 0.0000 0.0000 0.00000
   2    3 1 1   1 0  0.001197  0.001938   0.0      0     0     0    0    0  0.0000  0.00   0.0000 0.00000 0.0000 0.0000 0.00000
   3    4 1 1   1 0  0.012696  0.017548   0.0      0     0     0    0    0  0.0000  0.00   0.0000 0.00000 0.0000 0.0000 0.00000
   4    5 1 1   1 0  0.037400  0.060225   0.0      0     0     0    0    0  0.0000  0.00   0.0000 0.00000 0.0000 0.0000 0.00000
   5    6 1 1   1 0  0.002343  0.003579   0.0      0     0     0    0    0  0.0000  0.00   0.0000 0.00000 0.0000 0.0000 0.00000
   5    7 1 1   1 0  0.018734  0.028116   0.0      0     0     0    0    0  0.0000  0.00   0.0000 0.00000 0.0000 0.0000 0.00000
   5    8 1 1   1 0  0.017029  0.025593   0.0      0     0     0    0    0  0.0000  0.00   0.0000 0.00000 0.0000 0.0000 0.00000
   8    9 1 1   1 0  0.002210  0.003318   0.0      0     0     0    0    0  0.0000  0.00   0.0000 0.00000 0.0000 0.0000 0.00000
   9   10 1 1   1 0  0.004290  0.006624   0.0      0     0     0    0    0  0.0000  0.00   0.0000 0.00000 0.0000 0.0000 0.00000
  10   11 1 1   1 0  0.002405  0.003227   0.0      0     0     0    0    0  0.0000  0.00   0.0000 0.00000 0.0000 0.0000 0.00000
  11   12 1 1   1 0  0.012830  0.010676   0.0      0     0     0    0    0  0.0000  0.00   0.0000 0.00000 0.0000 0.0000 0.00000
   8   13 1 1   1 0  0.000617  0.000793   0.0      0     0     0    0    0  0.0000  0.00   0.0000 0.00000 0.0000 0.0000 0.00000
   8   14 1 1   1 0  0.006240  0.008074   0.0      0     0     0    0    0  0.0000  0.00   0.0000 0.00000 0.0000 0.0000 0.00000
  14   15 1 1   1 0  0.009390  0.011957   0.0      0     0     0    0    0  0.0000  0.00   0.0000 0.00000 0.0000 0.0000 0.00000
-999
LOSS ZONES FOLLOWS   0 ITEMS
-99
INTERCHANGE DATA FOLLOWS      0 ITEMS
-9
TIE LINES FOLLOWS             0ITEMS
-999
END OF DATA